data_image0
_chemical_formula_structural       MoCsN3MoCsN3MoCsN3MoCsN3MoCsN3MoCsN3MoCsN3MoCsN3MoCsN3MoCsN3MoCsN3MoCsN3MoCsN3MoCsN3MoCsN3MoCsN3MoCsN3MoCsN3MoCsN3MoCsN3MoCsN3MoCsN3MoCsN3MoCsN3MoCsN3MoCsN3MoCsN3
_chemical_formula_sum              "Mo27 Cs27 N81"
_cell_length_a       13.1422314
_cell_length_b       13.1422314
_cell_length_c       13.1422314
_cell_angle_alpha    90.0
_cell_angle_beta     90.0
_cell_angle_gamma    90.0

_space_group_name_H-M_alt    "P 1"
_space_group_IT_number       1

loop_
  _space_group_symop_operation_xyz
  'x, y, z'

loop_
  _atom_site_type_symbol
  _atom_site_label
  _atom_site_symmetry_multiplicity
  _atom_site_fract_x
  _atom_site_fract_y
  _atom_site_fract_z
  _atom_site_occupancy
  Mo  Mo1       1.0  0.06472975333333333  0.0  0.0  1.0000
  Cs  Cs1       1.0  0.2319375266666667  0.16666666666666669  0.16666666666666669  1.0000
  N   N1        1.0  0.06524367333333334  0.0  0.16666666666666669  1.0000
  N   N2        1.0  0.06524367333333334  0.16666666666666669  0.0  1.0000
  N   N3        1.0  0.06537585333333333  0.16666666666666669  0.16666666666666669  1.0000
  Mo  Mo2       1.0  0.06472975333333333  0.0  0.33333333333333337  1.0000
  Cs  Cs2       1.0  0.2319375266666667  0.16666666666666669  0.5  1.0000
  N   N4        1.0  0.06524367333333334  0.0  0.5  1.0000
  N   N5        1.0  0.06524367333333334  0.16666666666666669  0.33333333333333337  1.0000
  N   N6        1.0  0.06537585333333333  0.16666666666666669  0.5  1.0000
  Mo  Mo3       1.0  0.06472975333333333  0.0  0.6666666666666667  1.0000
  Cs  Cs3       1.0  0.2319375266666667  0.16666666666666669  0.8333333333333335  1.0000
  N   N7        1.0  0.06524367333333334  0.0  0.8333333333333335  1.0000
  N   N8        1.0  0.06524367333333334  0.16666666666666669  0.6666666666666667  1.0000
  N   N9        1.0  0.06537585333333333  0.16666666666666669  0.8333333333333335  1.0000
  Mo  Mo4       1.0  0.06472975333333333  0.33333333333333337  0.0  1.0000
  Cs  Cs4       1.0  0.2319375266666667  0.5  0.16666666666666669  1.0000
  N   N10       1.0  0.06524367333333334  0.33333333333333337  0.16666666666666669  1.0000
  N   N11       1.0  0.06524367333333334  0.5  0.0  1.0000
  N   N12       1.0  0.06537585333333333  0.5  0.16666666666666669  1.0000
  Mo  Mo5       1.0  0.06472975333333333  0.33333333333333337  0.33333333333333337  1.0000
  Cs  Cs5       1.0  0.2319375266666667  0.5  0.5  1.0000
  N   N13       1.0  0.06524367333333334  0.33333333333333337  0.5  1.0000
  N   N14       1.0  0.06524367333333334  0.5  0.33333333333333337  1.0000
  N   N15       1.0  0.06537585333333333  0.5  0.5  1.0000
  Mo  Mo6       1.0  0.06472975333333333  0.33333333333333337  0.6666666666666667  1.0000
  Cs  Cs6       1.0  0.2319375266666667  0.5  0.8333333333333335  1.0000
  N   N16       1.0  0.06524367333333334  0.33333333333333337  0.8333333333333335  1.0000
  N   N17       1.0  0.06524367333333334  0.5  0.6666666666666667  1.0000
  N   N18       1.0  0.06537585333333333  0.5  0.8333333333333335  1.0000
  Mo  Mo7       1.0  0.06472975333333333  0.6666666666666667  0.0  1.0000
  Cs  Cs7       1.0  0.2319375266666667  0.8333333333333335  0.16666666666666669  1.0000
  N   N19       1.0  0.06524367333333334  0.6666666666666667  0.16666666666666669  1.0000
  N   N20       1.0  0.06524367333333334  0.8333333333333335  0.0  1.0000
  N   N21       1.0  0.06537585333333333  0.8333333333333335  0.16666666666666669  1.0000
  Mo  Mo8       1.0  0.06472975333333333  0.6666666666666667  0.33333333333333337  1.0000
  Cs  Cs8       1.0  0.2319375266666667  0.8333333333333335  0.5  1.0000
  N   N22       1.0  0.06524367333333334  0.6666666666666667  0.5  1.0000
  N   N23       1.0  0.06524367333333334  0.8333333333333335  0.33333333333333337  1.0000
  N   N24       1.0  0.06537585333333333  0.8333333333333335  0.5  1.0000
  Mo  Mo9       1.0  0.06472975333333333  0.6666666666666667  0.6666666666666667  1.0000
  Cs  Cs9       1.0  0.2319375266666667  0.8333333333333335  0.8333333333333335  1.0000
  N   N25       1.0  0.06524367333333334  0.6666666666666667  0.8333333333333335  1.0000
  N   N26       1.0  0.06524367333333334  0.8333333333333335  0.6666666666666667  1.0000
  N   N27       1.0  0.06537585333333333  0.8333333333333335  0.8333333333333335  1.0000
  Mo  Mo10      1.0  0.3980630866666667  0.0  0.0  1.0000
  Cs  Cs10      1.0  0.56527086  0.16666666666666669  0.16666666666666669  1.0000
  N   N28       1.0  0.3985770066666667  0.0  0.16666666666666669  1.0000
  N   N29       1.0  0.3985770066666667  0.16666666666666669  0.0  1.0000
  N   N30       1.0  0.3987091866666667  0.16666666666666669  0.16666666666666669  1.0000
  Mo  Mo11      1.0  0.3980630866666667  0.0  0.33333333333333337  1.0000
  Cs  Cs11      1.0  0.56527086  0.16666666666666669  0.5  1.0000
  N   N31       1.0  0.3985770066666667  0.0  0.5  1.0000
  N   N32       1.0  0.3985770066666667  0.16666666666666669  0.33333333333333337  1.0000
  N   N33       1.0  0.3987091866666667  0.16666666666666669  0.5  1.0000
  Mo  Mo12      1.0  0.3980630866666667  0.0  0.6666666666666667  1.0000
  Cs  Cs12      1.0  0.56527086  0.16666666666666669  0.8333333333333335  1.0000
  N   N34       1.0  0.3985770066666667  0.0  0.8333333333333335  1.0000
  N   N35       1.0  0.3985770066666667  0.16666666666666669  0.6666666666666667  1.0000
  N   N36       1.0  0.3987091866666667  0.16666666666666669  0.8333333333333335  1.0000
  Mo  Mo13      1.0  0.3980630866666667  0.33333333333333337  0.0  1.0000
  Cs  Cs13      1.0  0.56527086  0.5  0.16666666666666669  1.0000
  N   N37       1.0  0.3985770066666667  0.33333333333333337  0.16666666666666669  1.0000
  N   N38       1.0  0.3985770066666667  0.5  0.0  1.0000
  N   N39       1.0  0.3987091866666667  0.5  0.16666666666666669  1.0000
  Mo  Mo14      1.0  0.3980630866666667  0.33333333333333337  0.33333333333333337  1.0000
  Cs  Cs14      1.0  0.56527086  0.5  0.5  1.0000
  N   N40       1.0  0.3985770066666667  0.33333333333333337  0.5  1.0000
  N   N41       1.0  0.3985770066666667  0.5  0.33333333333333337  1.0000
  N   N42       1.0  0.3987091866666667  0.5  0.5  1.0000
  Mo  Mo15      1.0  0.3980630866666667  0.33333333333333337  0.6666666666666667  1.0000
  Cs  Cs15      1.0  0.56527086  0.5  0.8333333333333335  1.0000
  N   N43       1.0  0.3985770066666667  0.33333333333333337  0.8333333333333335  1.0000
  N   N44       1.0  0.3985770066666667  0.5  0.6666666666666667  1.0000
  N   N45       1.0  0.3987091866666667  0.5  0.8333333333333335  1.0000
  Mo  Mo16      1.0  0.3980630866666667  0.6666666666666667  0.0  1.0000
  Cs  Cs16      1.0  0.56527086  0.8333333333333335  0.16666666666666669  1.0000
  N   N46       1.0  0.3985770066666667  0.6666666666666667  0.16666666666666669  1.0000
  N   N47       1.0  0.3985770066666667  0.8333333333333335  0.0  1.0000
  N   N48       1.0  0.3987091866666667  0.8333333333333335  0.16666666666666669  1.0000
  Mo  Mo17      1.0  0.3980630866666667  0.6666666666666667  0.33333333333333337  1.0000
  Cs  Cs17      1.0  0.56527086  0.8333333333333335  0.5  1.0000
  N   N49       1.0  0.3985770066666667  0.6666666666666667  0.5  1.0000
  N   N50       1.0  0.3985770066666667  0.8333333333333335  0.33333333333333337  1.0000
  N   N51       1.0  0.3987091866666667  0.8333333333333335  0.5  1.0000
  Mo  Mo18      1.0  0.3980630866666667  0.6666666666666667  0.6666666666666667  1.0000
  Cs  Cs18      1.0  0.56527086  0.8333333333333335  0.8333333333333335  1.0000
  N   N52       1.0  0.3985770066666667  0.6666666666666667  0.8333333333333335  1.0000
  N   N53       1.0  0.3985770066666667  0.8333333333333335  0.6666666666666667  1.0000
  N   N54       1.0  0.3987091866666667  0.8333333333333335  0.8333333333333335  1.0000
  Mo  Mo19      1.0  0.73139642  0.0  0.0  1.0000
  Cs  Cs19      1.0  0.8986041933333335  0.16666666666666669  0.16666666666666669  1.0000
  N   N55       1.0  0.7319103400000001  0.0  0.16666666666666669  1.0000
  N   N56       1.0  0.7319103400000001  0.16666666666666669  0.0  1.0000
  N   N57       1.0  0.73204252  0.16666666666666669  0.16666666666666669  1.0000
  Mo  Mo20      1.0  0.73139642  0.0  0.33333333333333337  1.0000
  Cs  Cs20      1.0  0.8986041933333335  0.16666666666666669  0.5  1.0000
  N   N58       1.0  0.7319103400000001  0.0  0.5  1.0000
  N   N59       1.0  0.7319103400000001  0.16666666666666669  0.33333333333333337  1.0000
  N   N60       1.0  0.73204252  0.16666666666666669  0.5  1.0000
  Mo  Mo21      1.0  0.73139642  0.0  0.6666666666666667  1.0000
  Cs  Cs21      1.0  0.8986041933333335  0.16666666666666669  0.8333333333333335  1.0000
  N   N61       1.0  0.7319103400000001  0.0  0.8333333333333335  1.0000
  N   N62       1.0  0.7319103400000001  0.16666666666666669  0.6666666666666667  1.0000
  N   N63       1.0  0.73204252  0.16666666666666669  0.8333333333333335  1.0000
  Mo  Mo22      1.0  0.73139642  0.33333333333333337  0.0  1.0000
  Cs  Cs22      1.0  0.8986041933333335  0.5  0.16666666666666669  1.0000
  N   N64       1.0  0.7319103400000001  0.33333333333333337  0.16666666666666669  1.0000
  N   N65       1.0  0.7319103400000001  0.5  0.0  1.0000
  N   N66       1.0  0.73204252  0.5  0.16666666666666669  1.0000
  Mo  Mo23      1.0  0.73139642  0.33333333333333337  0.33333333333333337  1.0000
  Cs  Cs23      1.0  0.8986041933333335  0.5  0.5  1.0000
  N   N67       1.0  0.7319103400000001  0.33333333333333337  0.5  1.0000
  N   N68       1.0  0.7319103400000001  0.5  0.33333333333333337  1.0000
  N   N69       1.0  0.73204252  0.5  0.5  1.0000
  Mo  Mo24      1.0  0.73139642  0.33333333333333337  0.6666666666666667  1.0000
  Cs  Cs24      1.0  0.8986041933333335  0.5  0.8333333333333335  1.0000
  N   N70       1.0  0.7319103400000001  0.33333333333333337  0.8333333333333335  1.0000
  N   N71       1.0  0.7319103400000001  0.5  0.6666666666666667  1.0000
  N   N72       1.0  0.73204252  0.5  0.8333333333333335  1.0000
  Mo  Mo25      1.0  0.73139642  0.6666666666666667  0.0  1.0000
  Cs  Cs25      1.0  0.8986041933333335  0.8333333333333335  0.16666666666666669  1.0000
  N   N73       1.0  0.7319103400000001  0.6666666666666667  0.16666666666666669  1.0000
  N   N74       1.0  0.7319103400000001  0.8333333333333335  0.0  1.0000
  N   N75       1.0  0.73204252  0.8333333333333335  0.16666666666666669  1.0000
  Mo  Mo26      1.0  0.73139642  0.6666666666666667  0.33333333333333337  1.0000
  Cs  Cs26      1.0  0.8986041933333335  0.8333333333333335  0.5  1.0000
  N   N76       1.0  0.7319103400000001  0.6666666666666667  0.5  1.0000
  N   N77       1.0  0.7319103400000001  0.8333333333333335  0.33333333333333337  1.0000
  N   N78       1.0  0.73204252  0.8333333333333335  0.5  1.0000
  Mo  Mo27      1.0  0.73139642  0.6666666666666667  0.6666666666666667  1.0000
  Cs  Cs27      1.0  0.8986041933333335  0.8333333333333335  0.8333333333333335  1.0000
  N   N79       1.0  0.7319103400000001  0.6666666666666667  0.8333333333333335  1.0000
  N   N80       1.0  0.7319103400000001  0.8333333333333335  0.6666666666666667  1.0000
  N   N81       1.0  0.73204252  0.8333333333333335  0.8333333333333335  1.0000
