data_image0
_chemical_formula_structural       AsRuNO2AsRuNO2AsRuNO2AsRuNO2AsRuNO2AsRuNO2AsRuNO2AsRuNO2AsRuNO2AsRuNO2AsRuNO2AsRuNO2AsRuNO2AsRuNO2AsRuNO2AsRuNO2AsRuNO2AsRuNO2AsRuNO2AsRuNO2AsRuNO2AsRuNO2AsRuNO2AsRuNO2AsRuNO2AsRuNO2AsRuNO2
_chemical_formula_sum              "As27 Ru27 N27 O54"
_cell_length_a       11.8329744
_cell_length_b       11.8329744
_cell_length_c       11.8329744
_cell_angle_alpha    90.0
_cell_angle_beta     90.0
_cell_angle_gamma    90.0

_space_group_name_H-M_alt    "P 1"
_space_group_IT_number       1

loop_
  _space_group_symop_operation_xyz
  'x, y, z'

loop_
  _atom_site_type_symbol
  _atom_site_label
  _atom_site_symmetry_multiplicity
  _atom_site_fract_x
  _atom_site_fract_y
  _atom_site_fract_z
  _atom_site_occupancy
  As  As1       1.0  0.0009620766666666667  0.0  0.0  1.0000
  Ru  Ru1       1.0  0.16764632333333332  0.16666666666666669  0.16666666666666669  1.0000
  N   N1        1.0  0.16716897333333333  0.0  0.16666666666666669  1.0000
  O   O1        1.0  0.16661000333333334  0.16666666666666669  0.0  1.0000
  O   O2        1.0  0.0008527333333333333  0.16666666666666669  0.16666666666666669  1.0000
  As  As2       1.0  0.0009620766666666667  0.0  0.33333333333333337  1.0000
  Ru  Ru2       1.0  0.16764632333333332  0.16666666666666669  0.5  1.0000
  N   N2        1.0  0.16716897333333333  0.0  0.5  1.0000
  O   O3        1.0  0.16661000333333334  0.16666666666666669  0.33333333333333337  1.0000
  O   O4        1.0  0.0008527333333333333  0.16666666666666669  0.5  1.0000
  As  As3       1.0  0.0009620766666666667  0.0  0.6666666666666667  1.0000
  Ru  Ru3       1.0  0.16764632333333332  0.16666666666666669  0.8333333333333334  1.0000
  N   N3        1.0  0.16716897333333333  0.0  0.8333333333333334  1.0000
  O   O5        1.0  0.16661000333333334  0.16666666666666669  0.6666666666666667  1.0000
  O   O6        1.0  0.0008527333333333333  0.16666666666666669  0.8333333333333334  1.0000
  As  As4       1.0  0.0009620766666666667  0.33333333333333337  0.0  1.0000
  Ru  Ru4       1.0  0.16764632333333332  0.5  0.16666666666666669  1.0000
  N   N4        1.0  0.16716897333333333  0.33333333333333337  0.16666666666666669  1.0000
  O   O7        1.0  0.16661000333333334  0.5  0.0  1.0000
  O   O8        1.0  0.0008527333333333333  0.5  0.16666666666666669  1.0000
  As  As5       1.0  0.0009620766666666667  0.33333333333333337  0.33333333333333337  1.0000
  Ru  Ru5       1.0  0.16764632333333332  0.5  0.5  1.0000
  N   N5        1.0  0.16716897333333333  0.33333333333333337  0.5  1.0000
  O   O9        1.0  0.16661000333333334  0.5  0.33333333333333337  1.0000
  O   O10       1.0  0.0008527333333333333  0.5  0.5  1.0000
  As  As6       1.0  0.0009620766666666667  0.33333333333333337  0.6666666666666667  1.0000
  Ru  Ru6       1.0  0.16764632333333332  0.5  0.8333333333333334  1.0000
  N   N6        1.0  0.16716897333333333  0.33333333333333337  0.8333333333333334  1.0000
  O   O11       1.0  0.16661000333333334  0.5  0.6666666666666667  1.0000
  O   O12       1.0  0.0008527333333333333  0.5  0.8333333333333334  1.0000
  As  As7       1.0  0.0009620766666666667  0.6666666666666667  0.0  1.0000
  Ru  Ru7       1.0  0.16764632333333332  0.8333333333333334  0.16666666666666669  1.0000
  N   N7        1.0  0.16716897333333333  0.6666666666666667  0.16666666666666669  1.0000
  O   O13       1.0  0.16661000333333334  0.8333333333333334  0.0  1.0000
  O   O14       1.0  0.0008527333333333333  0.8333333333333334  0.16666666666666669  1.0000
  As  As8       1.0  0.0009620766666666667  0.6666666666666667  0.33333333333333337  1.0000
  Ru  Ru8       1.0  0.16764632333333332  0.8333333333333334  0.5  1.0000
  N   N8        1.0  0.16716897333333333  0.6666666666666667  0.5  1.0000
  O   O15       1.0  0.16661000333333334  0.8333333333333334  0.33333333333333337  1.0000
  O   O16       1.0  0.0008527333333333333  0.8333333333333334  0.5  1.0000
  As  As9       1.0  0.0009620766666666667  0.6666666666666667  0.6666666666666667  1.0000
  Ru  Ru9       1.0  0.16764632333333332  0.8333333333333334  0.8333333333333334  1.0000
  N   N9        1.0  0.16716897333333333  0.6666666666666667  0.8333333333333334  1.0000
  O   O17       1.0  0.16661000333333334  0.8333333333333334  0.6666666666666667  1.0000
  O   O18       1.0  0.0008527333333333333  0.8333333333333334  0.8333333333333334  1.0000
  As  As10      1.0  0.33429541000000007  0.0  0.0  1.0000
  Ru  Ru10      1.0  0.5009796566666667  0.16666666666666669  0.16666666666666669  1.0000
  N   N10       1.0  0.5005023066666667  0.0  0.16666666666666669  1.0000
  O   O19       1.0  0.4999433366666667  0.16666666666666669  0.0  1.0000
  O   O20       1.0  0.33418606666666667  0.16666666666666669  0.16666666666666669  1.0000
  As  As11      1.0  0.33429541000000007  0.0  0.33333333333333337  1.0000
  Ru  Ru11      1.0  0.5009796566666667  0.16666666666666669  0.5  1.0000
  N   N11       1.0  0.5005023066666667  0.0  0.5  1.0000
  O   O21       1.0  0.4999433366666667  0.16666666666666669  0.33333333333333337  1.0000
  O   O22       1.0  0.33418606666666667  0.16666666666666669  0.5  1.0000
  As  As12      1.0  0.33429541000000007  0.0  0.6666666666666667  1.0000
  Ru  Ru12      1.0  0.5009796566666667  0.16666666666666669  0.8333333333333334  1.0000
  N   N12       1.0  0.5005023066666667  0.0  0.8333333333333334  1.0000
  O   O23       1.0  0.4999433366666667  0.16666666666666669  0.6666666666666667  1.0000
  O   O24       1.0  0.33418606666666667  0.16666666666666669  0.8333333333333334  1.0000
  As  As13      1.0  0.33429541000000007  0.33333333333333337  0.0  1.0000
  Ru  Ru13      1.0  0.5009796566666667  0.5  0.16666666666666669  1.0000
  N   N13       1.0  0.5005023066666667  0.33333333333333337  0.16666666666666669  1.0000
  O   O25       1.0  0.4999433366666667  0.5  0.0  1.0000
  O   O26       1.0  0.33418606666666667  0.5  0.16666666666666669  1.0000
  As  As14      1.0  0.33429541000000007  0.33333333333333337  0.33333333333333337  1.0000
  Ru  Ru14      1.0  0.5009796566666667  0.5  0.5  1.0000
  N   N14       1.0  0.5005023066666667  0.33333333333333337  0.5  1.0000
  O   O27       1.0  0.4999433366666667  0.5  0.33333333333333337  1.0000
  O   O28       1.0  0.33418606666666667  0.5  0.5  1.0000
  As  As15      1.0  0.33429541000000007  0.33333333333333337  0.6666666666666667  1.0000
  Ru  Ru15      1.0  0.5009796566666667  0.5  0.8333333333333334  1.0000
  N   N15       1.0  0.5005023066666667  0.33333333333333337  0.8333333333333334  1.0000
  O   O29       1.0  0.4999433366666667  0.5  0.6666666666666667  1.0000
  O   O30       1.0  0.33418606666666667  0.5  0.8333333333333334  1.0000
  As  As16      1.0  0.33429541000000007  0.6666666666666667  0.0  1.0000
  Ru  Ru16      1.0  0.5009796566666667  0.8333333333333334  0.16666666666666669  1.0000
  N   N16       1.0  0.5005023066666667  0.6666666666666667  0.16666666666666669  1.0000
  O   O31       1.0  0.4999433366666667  0.8333333333333334  0.0  1.0000
  O   O32       1.0  0.33418606666666667  0.8333333333333334  0.16666666666666669  1.0000
  As  As17      1.0  0.33429541000000007  0.6666666666666667  0.33333333333333337  1.0000
  Ru  Ru17      1.0  0.5009796566666667  0.8333333333333334  0.5  1.0000
  N   N17       1.0  0.5005023066666667  0.6666666666666667  0.5  1.0000
  O   O33       1.0  0.4999433366666667  0.8333333333333334  0.33333333333333337  1.0000
  O   O34       1.0  0.33418606666666667  0.8333333333333334  0.5  1.0000
  As  As18      1.0  0.33429541000000007  0.6666666666666667  0.6666666666666667  1.0000
  Ru  Ru18      1.0  0.5009796566666667  0.8333333333333334  0.8333333333333334  1.0000
  N   N18       1.0  0.5005023066666667  0.6666666666666667  0.8333333333333334  1.0000
  O   O35       1.0  0.4999433366666667  0.8333333333333334  0.6666666666666667  1.0000
  O   O36       1.0  0.33418606666666667  0.8333333333333334  0.8333333333333334  1.0000
  As  As19      1.0  0.6676287433333333  0.0  0.0  1.0000
  Ru  Ru19      1.0  0.83431299  0.16666666666666669  0.16666666666666669  1.0000
  N   N19       1.0  0.83383564  0.0  0.16666666666666669  1.0000
  O   O37       1.0  0.8332766699999999  0.16666666666666669  0.0  1.0000
  O   O38       1.0  0.6675194  0.16666666666666669  0.16666666666666669  1.0000
  As  As20      1.0  0.6676287433333333  0.0  0.33333333333333337  1.0000
  Ru  Ru20      1.0  0.83431299  0.16666666666666669  0.5  1.0000
  N   N20       1.0  0.83383564  0.0  0.5  1.0000
  O   O39       1.0  0.8332766699999999  0.16666666666666669  0.33333333333333337  1.0000
  O   O40       1.0  0.6675194  0.16666666666666669  0.5  1.0000
  As  As21      1.0  0.6676287433333333  0.0  0.6666666666666667  1.0000
  Ru  Ru21      1.0  0.83431299  0.16666666666666669  0.8333333333333334  1.0000
  N   N21       1.0  0.83383564  0.0  0.8333333333333334  1.0000
  O   O41       1.0  0.8332766699999999  0.16666666666666669  0.6666666666666667  1.0000
  O   O42       1.0  0.6675194  0.16666666666666669  0.8333333333333334  1.0000
  As  As22      1.0  0.6676287433333333  0.33333333333333337  0.0  1.0000
  Ru  Ru22      1.0  0.83431299  0.5  0.16666666666666669  1.0000
  N   N22       1.0  0.83383564  0.33333333333333337  0.16666666666666669  1.0000
  O   O43       1.0  0.8332766699999999  0.5  0.0  1.0000
  O   O44       1.0  0.6675194  0.5  0.16666666666666669  1.0000
  As  As23      1.0  0.6676287433333333  0.33333333333333337  0.33333333333333337  1.0000
  Ru  Ru23      1.0  0.83431299  0.5  0.5  1.0000
  N   N23       1.0  0.83383564  0.33333333333333337  0.5  1.0000
  O   O45       1.0  0.8332766699999999  0.5  0.33333333333333337  1.0000
  O   O46       1.0  0.6675194  0.5  0.5  1.0000
  As  As24      1.0  0.6676287433333333  0.33333333333333337  0.6666666666666667  1.0000
  Ru  Ru24      1.0  0.83431299  0.5  0.8333333333333334  1.0000
  N   N24       1.0  0.83383564  0.33333333333333337  0.8333333333333334  1.0000
  O   O47       1.0  0.8332766699999999  0.5  0.6666666666666667  1.0000
  O   O48       1.0  0.6675194  0.5  0.8333333333333334  1.0000
  As  As25      1.0  0.6676287433333333  0.6666666666666667  0.0  1.0000
  Ru  Ru25      1.0  0.83431299  0.8333333333333334  0.16666666666666669  1.0000
  N   N25       1.0  0.83383564  0.6666666666666667  0.16666666666666669  1.0000
  O   O49       1.0  0.8332766699999999  0.8333333333333334  0.0  1.0000
  O   O50       1.0  0.6675194  0.8333333333333334  0.16666666666666669  1.0000
  As  As26      1.0  0.6676287433333333  0.6666666666666667  0.33333333333333337  1.0000
  Ru  Ru26      1.0  0.83431299  0.8333333333333334  0.5  1.0000
  N   N26       1.0  0.83383564  0.6666666666666667  0.5  1.0000
  O   O51       1.0  0.8332766699999999  0.8333333333333334  0.33333333333333337  1.0000
  O   O52       1.0  0.6675194  0.8333333333333334  0.5  1.0000
  As  As27      1.0  0.6676287433333333  0.6666666666666667  0.6666666666666667  1.0000
  Ru  Ru27      1.0  0.83431299  0.8333333333333334  0.8333333333333334  1.0000
  N   N27       1.0  0.83383564  0.6666666666666667  0.8333333333333334  1.0000
  O   O53       1.0  0.8332766699999999  0.8333333333333334  0.6666666666666667  1.0000
  O   O54       1.0  0.6675194  0.8333333333333334  0.8333333333333334  1.0000
