data_image0
_chemical_formula_structural       BiSbNO2BiSbNO2BiSbNO2BiSbNO2BiSbNO2BiSbNO2BiSbNO2BiSbNO2BiSbNO2BiSbNO2BiSbNO2BiSbNO2BiSbNO2BiSbNO2BiSbNO2BiSbNO2BiSbNO2BiSbNO2BiSbNO2BiSbNO2BiSbNO2BiSbNO2BiSbNO2BiSbNO2BiSbNO2BiSbNO2BiSbNO2
_chemical_formula_sum              "Bi27 Sb27 N27 O54"
_cell_length_a       12.42554475
_cell_length_b       12.42554475
_cell_length_c       12.42554475
_cell_angle_alpha    90.0
_cell_angle_beta     90.0
_cell_angle_gamma    90.0

_space_group_name_H-M_alt    "P 1"
_space_group_IT_number       1

loop_
  _space_group_symop_operation_xyz
  'x, y, z'

loop_
  _atom_site_type_symbol
  _atom_site_label
  _atom_site_symmetry_multiplicity
  _atom_site_fract_x
  _atom_site_fract_y
  _atom_site_fract_z
  _atom_site_occupancy
  Bi  Bi1       1.0  0.0004298466666666667  0.0  0.0  1.0000
  Sb  Sb1       1.0  0.16824913  0.16666666666666666  0.16666666666666666  1.0000
  N   N1        1.0  0.16667732333333335  0.0  0.16666666666666666  1.0000
  O   O1        1.0  0.16668480333333333  0.16666666666666666  0.0  1.0000
  O   O2        1.0  0.0013218966666666669  0.16666666666666666  0.16666666666666666  1.0000
  Bi  Bi2       1.0  0.0004298466666666667  0.0  0.3333333333333333  1.0000
  Sb  Sb2       1.0  0.16824913  0.16666666666666666  0.5  1.0000
  N   N2        1.0  0.16667732333333335  0.0  0.5  1.0000
  O   O3        1.0  0.16668480333333333  0.16666666666666666  0.3333333333333333  1.0000
  O   O4        1.0  0.0013218966666666669  0.16666666666666666  0.5  1.0000
  Bi  Bi3       1.0  0.0004298466666666667  0.0  0.6666666666666666  1.0000
  Sb  Sb3       1.0  0.16824913  0.16666666666666666  0.8333333333333333  1.0000
  N   N3        1.0  0.16667732333333335  0.0  0.8333333333333333  1.0000
  O   O5        1.0  0.16668480333333333  0.16666666666666666  0.6666666666666666  1.0000
  O   O6        1.0  0.0013218966666666669  0.16666666666666666  0.8333333333333333  1.0000
  Bi  Bi4       1.0  0.0004298466666666667  0.3333333333333333  0.0  1.0000
  Sb  Sb4       1.0  0.16824913  0.5  0.16666666666666666  1.0000
  N   N4        1.0  0.16667732333333335  0.3333333333333333  0.16666666666666666  1.0000
  O   O7        1.0  0.16668480333333333  0.5  0.0  1.0000
  O   O8        1.0  0.0013218966666666669  0.5  0.16666666666666666  1.0000
  Bi  Bi5       1.0  0.0004298466666666667  0.3333333333333333  0.3333333333333333  1.0000
  Sb  Sb5       1.0  0.16824913  0.5  0.5  1.0000
  N   N5        1.0  0.16667732333333335  0.3333333333333333  0.5  1.0000
  O   O9        1.0  0.16668480333333333  0.5  0.3333333333333333  1.0000
  O   O10       1.0  0.0013218966666666669  0.5  0.5  1.0000
  Bi  Bi6       1.0  0.0004298466666666667  0.3333333333333333  0.6666666666666666  1.0000
  Sb  Sb6       1.0  0.16824913  0.5  0.8333333333333333  1.0000
  N   N6        1.0  0.16667732333333335  0.3333333333333333  0.8333333333333333  1.0000
  O   O11       1.0  0.16668480333333333  0.5  0.6666666666666666  1.0000
  O   O12       1.0  0.0013218966666666669  0.5  0.8333333333333333  1.0000
  Bi  Bi7       1.0  0.0004298466666666667  0.6666666666666666  0.0  1.0000
  Sb  Sb7       1.0  0.16824913  0.8333333333333333  0.16666666666666666  1.0000
  N   N7        1.0  0.16667732333333335  0.6666666666666666  0.16666666666666666  1.0000
  O   O13       1.0  0.16668480333333333  0.8333333333333333  0.0  1.0000
  O   O14       1.0  0.0013218966666666669  0.8333333333333333  0.16666666666666666  1.0000
  Bi  Bi8       1.0  0.0004298466666666667  0.6666666666666666  0.3333333333333333  1.0000
  Sb  Sb8       1.0  0.16824913  0.8333333333333333  0.5  1.0000
  N   N8        1.0  0.16667732333333335  0.6666666666666666  0.5  1.0000
  O   O15       1.0  0.16668480333333333  0.8333333333333333  0.3333333333333333  1.0000
  O   O16       1.0  0.0013218966666666669  0.8333333333333333  0.5  1.0000
  Bi  Bi9       1.0  0.0004298466666666667  0.6666666666666666  0.6666666666666666  1.0000
  Sb  Sb9       1.0  0.16824913  0.8333333333333333  0.8333333333333333  1.0000
  N   N9        1.0  0.16667732333333335  0.6666666666666666  0.8333333333333333  1.0000
  O   O17       1.0  0.16668480333333333  0.8333333333333333  0.6666666666666666  1.0000
  O   O18       1.0  0.0013218966666666669  0.8333333333333333  0.8333333333333333  1.0000
  Bi  Bi10      1.0  0.33376318  0.0  0.0  1.0000
  Sb  Sb10      1.0  0.5015824633333333  0.16666666666666666  0.16666666666666666  1.0000
  N   N10       1.0  0.5000106566666667  0.0  0.16666666666666666  1.0000
  O   O19       1.0  0.5000181366666667  0.16666666666666666  0.0  1.0000
  O   O20       1.0  0.33465523  0.16666666666666666  0.16666666666666666  1.0000
  Bi  Bi11      1.0  0.33376318  0.0  0.3333333333333333  1.0000
  Sb  Sb11      1.0  0.5015824633333333  0.16666666666666666  0.5  1.0000
  N   N11       1.0  0.5000106566666667  0.0  0.5  1.0000
  O   O21       1.0  0.5000181366666667  0.16666666666666666  0.3333333333333333  1.0000
  O   O22       1.0  0.33465523  0.16666666666666666  0.5  1.0000
  Bi  Bi12      1.0  0.33376318  0.0  0.6666666666666666  1.0000
  Sb  Sb12      1.0  0.5015824633333333  0.16666666666666666  0.8333333333333333  1.0000
  N   N12       1.0  0.5000106566666667  0.0  0.8333333333333333  1.0000
  O   O23       1.0  0.5000181366666667  0.16666666666666666  0.6666666666666666  1.0000
  O   O24       1.0  0.33465523  0.16666666666666666  0.8333333333333333  1.0000
  Bi  Bi13      1.0  0.33376318  0.3333333333333333  0.0  1.0000
  Sb  Sb13      1.0  0.5015824633333333  0.5  0.16666666666666666  1.0000
  N   N13       1.0  0.5000106566666667  0.3333333333333333  0.16666666666666666  1.0000
  O   O25       1.0  0.5000181366666667  0.5  0.0  1.0000
  O   O26       1.0  0.33465523  0.5  0.16666666666666666  1.0000
  Bi  Bi14      1.0  0.33376318  0.3333333333333333  0.3333333333333333  1.0000
  Sb  Sb14      1.0  0.5015824633333333  0.5  0.5  1.0000
  N   N14       1.0  0.5000106566666667  0.3333333333333333  0.5  1.0000
  O   O27       1.0  0.5000181366666667  0.5  0.3333333333333333  1.0000
  O   O28       1.0  0.33465523  0.5  0.5  1.0000
  Bi  Bi15      1.0  0.33376318  0.3333333333333333  0.6666666666666666  1.0000
  Sb  Sb15      1.0  0.5015824633333333  0.5  0.8333333333333333  1.0000
  N   N15       1.0  0.5000106566666667  0.3333333333333333  0.8333333333333333  1.0000
  O   O29       1.0  0.5000181366666667  0.5  0.6666666666666666  1.0000
  O   O30       1.0  0.33465523  0.5  0.8333333333333333  1.0000
  Bi  Bi16      1.0  0.33376318  0.6666666666666666  0.0  1.0000
  Sb  Sb16      1.0  0.5015824633333333  0.8333333333333333  0.16666666666666666  1.0000
  N   N16       1.0  0.5000106566666667  0.6666666666666666  0.16666666666666666  1.0000
  O   O31       1.0  0.5000181366666667  0.8333333333333333  0.0  1.0000
  O   O32       1.0  0.33465523  0.8333333333333333  0.16666666666666666  1.0000
  Bi  Bi17      1.0  0.33376318  0.6666666666666666  0.3333333333333333  1.0000
  Sb  Sb17      1.0  0.5015824633333333  0.8333333333333333  0.5  1.0000
  N   N17       1.0  0.5000106566666667  0.6666666666666666  0.5  1.0000
  O   O33       1.0  0.5000181366666667  0.8333333333333333  0.3333333333333333  1.0000
  O   O34       1.0  0.33465523  0.8333333333333333  0.5  1.0000
  Bi  Bi18      1.0  0.33376318  0.6666666666666666  0.6666666666666666  1.0000
  Sb  Sb18      1.0  0.5015824633333333  0.8333333333333333  0.8333333333333333  1.0000
  N   N18       1.0  0.5000106566666667  0.6666666666666666  0.8333333333333333  1.0000
  O   O35       1.0  0.5000181366666667  0.8333333333333333  0.6666666666666666  1.0000
  O   O36       1.0  0.33465523  0.8333333333333333  0.8333333333333333  1.0000
  Bi  Bi19      1.0  0.6670965133333334  0.0  0.0  1.0000
  Sb  Sb19      1.0  0.8349157966666666  0.16666666666666666  0.16666666666666666  1.0000
  N   N19       1.0  0.8333439899999999  0.0  0.16666666666666666  1.0000
  O   O37       1.0  0.83335147  0.16666666666666666  0.0  1.0000
  O   O38       1.0  0.6679885633333333  0.16666666666666666  0.16666666666666666  1.0000
  Bi  Bi20      1.0  0.6670965133333334  0.0  0.3333333333333333  1.0000
  Sb  Sb20      1.0  0.8349157966666666  0.16666666666666666  0.5  1.0000
  N   N20       1.0  0.8333439899999999  0.0  0.5  1.0000
  O   O39       1.0  0.83335147  0.16666666666666666  0.3333333333333333  1.0000
  O   O40       1.0  0.6679885633333333  0.16666666666666666  0.5  1.0000
  Bi  Bi21      1.0  0.6670965133333334  0.0  0.6666666666666666  1.0000
  Sb  Sb21      1.0  0.8349157966666666  0.16666666666666666  0.8333333333333333  1.0000
  N   N21       1.0  0.8333439899999999  0.0  0.8333333333333333  1.0000
  O   O41       1.0  0.83335147  0.16666666666666666  0.6666666666666666  1.0000
  O   O42       1.0  0.6679885633333333  0.16666666666666666  0.8333333333333333  1.0000
  Bi  Bi22      1.0  0.6670965133333334  0.3333333333333333  0.0  1.0000
  Sb  Sb22      1.0  0.8349157966666666  0.5  0.16666666666666666  1.0000
  N   N22       1.0  0.8333439899999999  0.3333333333333333  0.16666666666666666  1.0000
  O   O43       1.0  0.83335147  0.5  0.0  1.0000
  O   O44       1.0  0.6679885633333333  0.5  0.16666666666666666  1.0000
  Bi  Bi23      1.0  0.6670965133333334  0.3333333333333333  0.3333333333333333  1.0000
  Sb  Sb23      1.0  0.8349157966666666  0.5  0.5  1.0000
  N   N23       1.0  0.8333439899999999  0.3333333333333333  0.5  1.0000
  O   O45       1.0  0.83335147  0.5  0.3333333333333333  1.0000
  O   O46       1.0  0.6679885633333333  0.5  0.5  1.0000
  Bi  Bi24      1.0  0.6670965133333334  0.3333333333333333  0.6666666666666666  1.0000
  Sb  Sb24      1.0  0.8349157966666666  0.5  0.8333333333333333  1.0000
  N   N24       1.0  0.8333439899999999  0.3333333333333333  0.8333333333333333  1.0000
  O   O47       1.0  0.83335147  0.5  0.6666666666666666  1.0000
  O   O48       1.0  0.6679885633333333  0.5  0.8333333333333333  1.0000
  Bi  Bi25      1.0  0.6670965133333334  0.6666666666666666  0.0  1.0000
  Sb  Sb25      1.0  0.8349157966666666  0.8333333333333333  0.16666666666666666  1.0000
  N   N25       1.0  0.8333439899999999  0.6666666666666666  0.16666666666666666  1.0000
  O   O49       1.0  0.83335147  0.8333333333333333  0.0  1.0000
  O   O50       1.0  0.6679885633333333  0.8333333333333333  0.16666666666666666  1.0000
  Bi  Bi26      1.0  0.6670965133333334  0.6666666666666666  0.3333333333333333  1.0000
  Sb  Sb26      1.0  0.8349157966666666  0.8333333333333333  0.5  1.0000
  N   N26       1.0  0.8333439899999999  0.6666666666666666  0.5  1.0000
  O   O51       1.0  0.83335147  0.8333333333333333  0.3333333333333333  1.0000
  O   O52       1.0  0.6679885633333333  0.8333333333333333  0.5  1.0000
  Bi  Bi27      1.0  0.6670965133333334  0.6666666666666666  0.6666666666666666  1.0000
  Sb  Sb27      1.0  0.8349157966666666  0.8333333333333333  0.8333333333333333  1.0000
  N   N27       1.0  0.8333439899999999  0.6666666666666666  0.8333333333333333  1.0000
  O   O53       1.0  0.83335147  0.8333333333333333  0.6666666666666666  1.0000
  O   O54       1.0  0.6679885633333333  0.8333333333333333  0.8333333333333333  1.0000
