data_image0
_chemical_formula_structural       PtCsFNOPtCsFNOPtCsFNOPtCsFNOPtCsFNOPtCsFNOPtCsFNOPtCsFNOPtCsFNOPtCsFNOPtCsFNOPtCsFNOPtCsFNOPtCsFNOPtCsFNOPtCsFNOPtCsFNOPtCsFNOPtCsFNOPtCsFNOPtCsFNOPtCsFNOPtCsFNOPtCsFNOPtCsFNOPtCsFNOPtCsFNO
_chemical_formula_sum              "Pt27 Cs27 F27 N27 O27"
_cell_length_a       14.14965735
_cell_length_b       14.14965735
_cell_length_c       14.14965735
_cell_angle_alpha    90.0
_cell_angle_beta     90.0
_cell_angle_gamma    90.0

_space_group_name_H-M_alt    "P 1"
_space_group_IT_number       1

loop_
  _space_group_symop_operation_xyz
  'x, y, z'

loop_
  _atom_site_type_symbol
  _atom_site_label
  _atom_site_symmetry_multiplicity
  _atom_site_fract_x
  _atom_site_fract_y
  _atom_site_fract_z
  _atom_site_occupancy
  Pt  Pt1       1.0  0.00022003  0.0  0.0  1.0000
  Cs  Cs1       1.0  0.16781689333333336  0.16666666666666666  0.16666666666666666  1.0000
  F   F1        1.0  0.16647166000000002  0.0  0.16666666666666666  1.0000
  N   N1        1.0  0.16686993333333333  0.16666666666666666  0.0  1.0000
  O   O1        1.0  0.0018148433333333336  0.16666666666666666  0.16666666666666666  1.0000
  Pt  Pt2       1.0  0.00022003  0.0  0.3333333333333333  1.0000
  Cs  Cs2       1.0  0.16781689333333336  0.16666666666666666  0.5  1.0000
  F   F2        1.0  0.16647166000000002  0.0  0.5  1.0000
  N   N2        1.0  0.16686993333333333  0.16666666666666666  0.3333333333333333  1.0000
  O   O2        1.0  0.0018148433333333336  0.16666666666666666  0.5  1.0000
  Pt  Pt3       1.0  0.00022003  0.0  0.6666666666666666  1.0000
  Cs  Cs3       1.0  0.16781689333333336  0.16666666666666666  0.8333333333333334  1.0000
  F   F3        1.0  0.16647166000000002  0.0  0.8333333333333334  1.0000
  N   N3        1.0  0.16686993333333333  0.16666666666666666  0.6666666666666666  1.0000
  O   O3        1.0  0.0018148433333333336  0.16666666666666666  0.8333333333333334  1.0000
  Pt  Pt4       1.0  0.00022003  0.3333333333333333  0.0  1.0000
  Cs  Cs4       1.0  0.16781689333333336  0.5  0.16666666666666666  1.0000
  F   F4        1.0  0.16647166000000002  0.3333333333333333  0.16666666666666666  1.0000
  N   N4        1.0  0.16686993333333333  0.5  0.0  1.0000
  O   O4        1.0  0.0018148433333333336  0.5  0.16666666666666666  1.0000
  Pt  Pt5       1.0  0.00022003  0.3333333333333333  0.3333333333333333  1.0000
  Cs  Cs5       1.0  0.16781689333333336  0.5  0.5  1.0000
  F   F5        1.0  0.16647166000000002  0.3333333333333333  0.5  1.0000
  N   N5        1.0  0.16686993333333333  0.5  0.3333333333333333  1.0000
  O   O5        1.0  0.0018148433333333336  0.5  0.5  1.0000
  Pt  Pt6       1.0  0.00022003  0.3333333333333333  0.6666666666666666  1.0000
  Cs  Cs6       1.0  0.16781689333333336  0.5  0.8333333333333334  1.0000
  F   F6        1.0  0.16647166000000002  0.3333333333333333  0.8333333333333334  1.0000
  N   N6        1.0  0.16686993333333333  0.5  0.6666666666666666  1.0000
  O   O6        1.0  0.0018148433333333336  0.5  0.8333333333333334  1.0000
  Pt  Pt7       1.0  0.00022003  0.6666666666666666  0.0  1.0000
  Cs  Cs7       1.0  0.16781689333333336  0.8333333333333334  0.16666666666666666  1.0000
  F   F7        1.0  0.16647166000000002  0.6666666666666666  0.16666666666666666  1.0000
  N   N7        1.0  0.16686993333333333  0.8333333333333334  0.0  1.0000
  O   O7        1.0  0.0018148433333333336  0.8333333333333334  0.16666666666666666  1.0000
  Pt  Pt8       1.0  0.00022003  0.6666666666666666  0.3333333333333333  1.0000
  Cs  Cs8       1.0  0.16781689333333336  0.8333333333333334  0.5  1.0000
  F   F8        1.0  0.16647166000000002  0.6666666666666666  0.5  1.0000
  N   N8        1.0  0.16686993333333333  0.8333333333333334  0.3333333333333333  1.0000
  O   O8        1.0  0.0018148433333333336  0.8333333333333334  0.5  1.0000
  Pt  Pt9       1.0  0.00022003  0.6666666666666666  0.6666666666666666  1.0000
  Cs  Cs9       1.0  0.16781689333333336  0.8333333333333334  0.8333333333333334  1.0000
  F   F9        1.0  0.16647166000000002  0.6666666666666666  0.8333333333333334  1.0000
  N   N9        1.0  0.16686993333333333  0.8333333333333334  0.6666666666666666  1.0000
  O   O9        1.0  0.0018148433333333336  0.8333333333333334  0.8333333333333334  1.0000
  Pt  Pt10      1.0  0.3335533633333333  0.0  0.0  1.0000
  Cs  Cs10      1.0  0.5011502266666666  0.16666666666666666  0.16666666666666666  1.0000
  F   F10       1.0  0.49980499333333334  0.0  0.16666666666666666  1.0000
  N   N10       1.0  0.5002032666666667  0.16666666666666666  0.0  1.0000
  O   O10       1.0  0.33514817666666663  0.16666666666666666  0.16666666666666666  1.0000
  Pt  Pt11      1.0  0.3335533633333333  0.0  0.3333333333333333  1.0000
  Cs  Cs11      1.0  0.5011502266666666  0.16666666666666666  0.5  1.0000
  F   F11       1.0  0.49980499333333334  0.0  0.5  1.0000
  N   N11       1.0  0.5002032666666667  0.16666666666666666  0.3333333333333333  1.0000
  O   O11       1.0  0.33514817666666663  0.16666666666666666  0.5  1.0000
  Pt  Pt12      1.0  0.3335533633333333  0.0  0.6666666666666666  1.0000
  Cs  Cs12      1.0  0.5011502266666666  0.16666666666666666  0.8333333333333334  1.0000
  F   F12       1.0  0.49980499333333334  0.0  0.8333333333333334  1.0000
  N   N12       1.0  0.5002032666666667  0.16666666666666666  0.6666666666666666  1.0000
  O   O12       1.0  0.33514817666666663  0.16666666666666666  0.8333333333333334  1.0000
  Pt  Pt13      1.0  0.3335533633333333  0.3333333333333333  0.0  1.0000
  Cs  Cs13      1.0  0.5011502266666666  0.5  0.16666666666666666  1.0000
  F   F13       1.0  0.49980499333333334  0.3333333333333333  0.16666666666666666  1.0000
  N   N13       1.0  0.5002032666666667  0.5  0.0  1.0000
  O   O13       1.0  0.33514817666666663  0.5  0.16666666666666666  1.0000
  Pt  Pt14      1.0  0.3335533633333333  0.3333333333333333  0.3333333333333333  1.0000
  Cs  Cs14      1.0  0.5011502266666666  0.5  0.5  1.0000
  F   F14       1.0  0.49980499333333334  0.3333333333333333  0.5  1.0000
  N   N14       1.0  0.5002032666666667  0.5  0.3333333333333333  1.0000
  O   O14       1.0  0.33514817666666663  0.5  0.5  1.0000
  Pt  Pt15      1.0  0.3335533633333333  0.3333333333333333  0.6666666666666666  1.0000
  Cs  Cs15      1.0  0.5011502266666666  0.5  0.8333333333333334  1.0000
  F   F15       1.0  0.49980499333333334  0.3333333333333333  0.8333333333333334  1.0000
  N   N15       1.0  0.5002032666666667  0.5  0.6666666666666666  1.0000
  O   O15       1.0  0.33514817666666663  0.5  0.8333333333333334  1.0000
  Pt  Pt16      1.0  0.3335533633333333  0.6666666666666666  0.0  1.0000
  Cs  Cs16      1.0  0.5011502266666666  0.8333333333333334  0.16666666666666666  1.0000
  F   F16       1.0  0.49980499333333334  0.6666666666666666  0.16666666666666666  1.0000
  N   N16       1.0  0.5002032666666667  0.8333333333333334  0.0  1.0000
  O   O16       1.0  0.33514817666666663  0.8333333333333334  0.16666666666666666  1.0000
  Pt  Pt17      1.0  0.3335533633333333  0.6666666666666666  0.3333333333333333  1.0000
  Cs  Cs17      1.0  0.5011502266666666  0.8333333333333334  0.5  1.0000
  F   F17       1.0  0.49980499333333334  0.6666666666666666  0.5  1.0000
  N   N17       1.0  0.5002032666666667  0.8333333333333334  0.3333333333333333  1.0000
  O   O17       1.0  0.33514817666666663  0.8333333333333334  0.5  1.0000
  Pt  Pt18      1.0  0.3335533633333333  0.6666666666666666  0.6666666666666666  1.0000
  Cs  Cs18      1.0  0.5011502266666666  0.8333333333333334  0.8333333333333334  1.0000
  F   F18       1.0  0.49980499333333334  0.6666666666666666  0.8333333333333334  1.0000
  N   N18       1.0  0.5002032666666667  0.8333333333333334  0.6666666666666666  1.0000
  O   O18       1.0  0.33514817666666663  0.8333333333333334  0.8333333333333334  1.0000
  Pt  Pt19      1.0  0.6668866966666667  0.0  0.0  1.0000
  Cs  Cs19      1.0  0.83448356  0.16666666666666666  0.16666666666666666  1.0000
  F   F19       1.0  0.8331383266666667  0.0  0.16666666666666666  1.0000
  N   N19       1.0  0.8335366000000001  0.16666666666666666  0.0  1.0000
  O   O19       1.0  0.66848151  0.16666666666666666  0.16666666666666666  1.0000
  Pt  Pt20      1.0  0.6668866966666667  0.0  0.3333333333333333  1.0000
  Cs  Cs20      1.0  0.83448356  0.16666666666666666  0.5  1.0000
  F   F20       1.0  0.8331383266666667  0.0  0.5  1.0000
  N   N20       1.0  0.8335366000000001  0.16666666666666666  0.3333333333333333  1.0000
  O   O20       1.0  0.66848151  0.16666666666666666  0.5  1.0000
  Pt  Pt21      1.0  0.6668866966666667  0.0  0.6666666666666666  1.0000
  Cs  Cs21      1.0  0.83448356  0.16666666666666666  0.8333333333333334  1.0000
  F   F21       1.0  0.8331383266666667  0.0  0.8333333333333334  1.0000
  N   N21       1.0  0.8335366000000001  0.16666666666666666  0.6666666666666666  1.0000
  O   O21       1.0  0.66848151  0.16666666666666666  0.8333333333333334  1.0000
  Pt  Pt22      1.0  0.6668866966666667  0.3333333333333333  0.0  1.0000
  Cs  Cs22      1.0  0.83448356  0.5  0.16666666666666666  1.0000
  F   F22       1.0  0.8331383266666667  0.3333333333333333  0.16666666666666666  1.0000
  N   N22       1.0  0.8335366000000001  0.5  0.0  1.0000
  O   O22       1.0  0.66848151  0.5  0.16666666666666666  1.0000
  Pt  Pt23      1.0  0.6668866966666667  0.3333333333333333  0.3333333333333333  1.0000
  Cs  Cs23      1.0  0.83448356  0.5  0.5  1.0000
  F   F23       1.0  0.8331383266666667  0.3333333333333333  0.5  1.0000
  N   N23       1.0  0.8335366000000001  0.5  0.3333333333333333  1.0000
  O   O23       1.0  0.66848151  0.5  0.5  1.0000
  Pt  Pt24      1.0  0.6668866966666667  0.3333333333333333  0.6666666666666666  1.0000
  Cs  Cs24      1.0  0.83448356  0.5  0.8333333333333334  1.0000
  F   F24       1.0  0.8331383266666667  0.3333333333333333  0.8333333333333334  1.0000
  N   N24       1.0  0.8335366000000001  0.5  0.6666666666666666  1.0000
  O   O24       1.0  0.66848151  0.5  0.8333333333333334  1.0000
  Pt  Pt25      1.0  0.6668866966666667  0.6666666666666666  0.0  1.0000
  Cs  Cs25      1.0  0.83448356  0.8333333333333334  0.16666666666666666  1.0000
  F   F25       1.0  0.8331383266666667  0.6666666666666666  0.16666666666666666  1.0000
  N   N25       1.0  0.8335366000000001  0.8333333333333334  0.0  1.0000
  O   O25       1.0  0.66848151  0.8333333333333334  0.16666666666666666  1.0000
  Pt  Pt26      1.0  0.6668866966666667  0.6666666666666666  0.3333333333333333  1.0000
  Cs  Cs26      1.0  0.83448356  0.8333333333333334  0.5  1.0000
  F   F26       1.0  0.8331383266666667  0.6666666666666666  0.5  1.0000
  N   N26       1.0  0.8335366000000001  0.8333333333333334  0.3333333333333333  1.0000
  O   O26       1.0  0.66848151  0.8333333333333334  0.5  1.0000
  Pt  Pt27      1.0  0.6668866966666667  0.6666666666666666  0.6666666666666666  1.0000
  Cs  Cs27      1.0  0.83448356  0.8333333333333334  0.8333333333333334  1.0000
  F   F27       1.0  0.8331383266666667  0.6666666666666666  0.8333333333333334  1.0000
  N   N27       1.0  0.8335366000000001  0.8333333333333334  0.6666666666666666  1.0000
  O   O27       1.0  0.66848151  0.8333333333333334  0.8333333333333334  1.0000
