data_image0
_chemical_formula_structural       SrMoFNOSrMoFNOSrMoFNOSrMoFNOSrMoFNOSrMoFNOSrMoFNOSrMoFNOSrMoFNOSrMoFNOSrMoFNOSrMoFNOSrMoFNOSrMoFNOSrMoFNOSrMoFNOSrMoFNOSrMoFNOSrMoFNOSrMoFNOSrMoFNOSrMoFNOSrMoFNOSrMoFNOSrMoFNOSrMoFNOSrMoFNO
_chemical_formula_sum              "Sr27 Mo27 F27 N27 O27"
_cell_length_a       12.452450279999999
_cell_length_b       12.452450279999999
_cell_length_c       12.452450279999999
_cell_angle_alpha    90.0
_cell_angle_beta     90.0
_cell_angle_gamma    90.0

_space_group_name_H-M_alt    "P 1"
_space_group_IT_number       1

loop_
  _space_group_symop_operation_xyz
  'x, y, z'

loop_
  _atom_site_type_symbol
  _atom_site_label
  _atom_site_symmetry_multiplicity
  _atom_site_fract_x
  _atom_site_fract_y
  _atom_site_fract_z
  _atom_site_occupancy
  Sr  Sr1       1.0  0.0002366933333333333  0.0  0.0  1.0000
  Mo  Mo1       1.0  0.16785753999999997  0.16666666666666666  0.16666666666666666  1.0000
  F   F1        1.0  0.16682509  0.0  0.16666666666666666  1.0000
  N   N1        1.0  0.16715398666666664  0.16666666666666666  0.0  1.0000
  O   O1        1.0  0.00136552  0.16666666666666666  0.16666666666666666  1.0000
  Sr  Sr2       1.0  0.0002366933333333333  0.0  0.3333333333333333  1.0000
  Mo  Mo2       1.0  0.16785753999999997  0.16666666666666666  0.49999999999999994  1.0000
  F   F2        1.0  0.16682509  0.0  0.49999999999999994  1.0000
  N   N2        1.0  0.16715398666666664  0.16666666666666666  0.3333333333333333  1.0000
  O   O2        1.0  0.00136552  0.16666666666666666  0.49999999999999994  1.0000
  Sr  Sr3       1.0  0.0002366933333333333  0.0  0.6666666666666666  1.0000
  Mo  Mo3       1.0  0.16785753999999997  0.16666666666666666  0.8333333333333331  1.0000
  F   F3        1.0  0.16682509  0.0  0.8333333333333331  1.0000
  N   N3        1.0  0.16715398666666664  0.16666666666666666  0.6666666666666666  1.0000
  O   O3        1.0  0.00136552  0.16666666666666666  0.8333333333333331  1.0000
  Sr  Sr4       1.0  0.0002366933333333333  0.3333333333333333  0.0  1.0000
  Mo  Mo4       1.0  0.16785753999999997  0.49999999999999994  0.16666666666666666  1.0000
  F   F4        1.0  0.16682509  0.3333333333333333  0.16666666666666666  1.0000
  N   N4        1.0  0.16715398666666664  0.49999999999999994  0.0  1.0000
  O   O4        1.0  0.00136552  0.49999999999999994  0.16666666666666666  1.0000
  Sr  Sr5       1.0  0.0002366933333333333  0.3333333333333333  0.3333333333333333  1.0000
  Mo  Mo5       1.0  0.16785753999999997  0.49999999999999994  0.49999999999999994  1.0000
  F   F5        1.0  0.16682509  0.3333333333333333  0.49999999999999994  1.0000
  N   N5        1.0  0.16715398666666664  0.49999999999999994  0.3333333333333333  1.0000
  O   O5        1.0  0.00136552  0.49999999999999994  0.49999999999999994  1.0000
  Sr  Sr6       1.0  0.0002366933333333333  0.3333333333333333  0.6666666666666666  1.0000
  Mo  Mo6       1.0  0.16785753999999997  0.49999999999999994  0.8333333333333331  1.0000
  F   F6        1.0  0.16682509  0.3333333333333333  0.8333333333333331  1.0000
  N   N6        1.0  0.16715398666666664  0.49999999999999994  0.6666666666666666  1.0000
  O   O6        1.0  0.00136552  0.49999999999999994  0.8333333333333331  1.0000
  Sr  Sr7       1.0  0.0002366933333333333  0.6666666666666666  0.0  1.0000
  Mo  Mo7       1.0  0.16785753999999997  0.8333333333333331  0.16666666666666666  1.0000
  F   F7        1.0  0.16682509  0.6666666666666666  0.16666666666666666  1.0000
  N   N7        1.0  0.16715398666666664  0.8333333333333331  0.0  1.0000
  O   O7        1.0  0.00136552  0.8333333333333331  0.16666666666666666  1.0000
  Sr  Sr8       1.0  0.0002366933333333333  0.6666666666666666  0.3333333333333333  1.0000
  Mo  Mo8       1.0  0.16785753999999997  0.8333333333333331  0.49999999999999994  1.0000
  F   F8        1.0  0.16682509  0.6666666666666666  0.49999999999999994  1.0000
  N   N8        1.0  0.16715398666666664  0.8333333333333331  0.3333333333333333  1.0000
  O   O8        1.0  0.00136552  0.8333333333333331  0.49999999999999994  1.0000
  Sr  Sr9       1.0  0.0002366933333333333  0.6666666666666666  0.6666666666666666  1.0000
  Mo  Mo9       1.0  0.16785753999999997  0.8333333333333331  0.8333333333333331  1.0000
  F   F9        1.0  0.16682509  0.6666666666666666  0.8333333333333331  1.0000
  N   N9        1.0  0.16715398666666664  0.8333333333333331  0.6666666666666666  1.0000
  O   O9        1.0  0.00136552  0.8333333333333331  0.8333333333333331  1.0000
  Sr  Sr10      1.0  0.3335700266666667  0.0  0.0  1.0000
  Mo  Mo10      1.0  0.5011908733333332  0.16666666666666666  0.16666666666666666  1.0000
  F   F10       1.0  0.5001584233333334  0.0  0.16666666666666666  1.0000
  N   N10       1.0  0.50048732  0.16666666666666666  0.0  1.0000
  O   O10       1.0  0.3346988533333333  0.16666666666666666  0.16666666666666666  1.0000
  Sr  Sr11      1.0  0.3335700266666667  0.0  0.3333333333333333  1.0000
  Mo  Mo11      1.0  0.5011908733333332  0.16666666666666666  0.49999999999999994  1.0000
  F   F11       1.0  0.5001584233333334  0.0  0.49999999999999994  1.0000
  N   N11       1.0  0.50048732  0.16666666666666666  0.3333333333333333  1.0000
  O   O11       1.0  0.3346988533333333  0.16666666666666666  0.49999999999999994  1.0000
  Sr  Sr12      1.0  0.3335700266666667  0.0  0.6666666666666666  1.0000
  Mo  Mo12      1.0  0.5011908733333332  0.16666666666666666  0.8333333333333331  1.0000
  F   F12       1.0  0.5001584233333334  0.0  0.8333333333333331  1.0000
  N   N12       1.0  0.50048732  0.16666666666666666  0.6666666666666666  1.0000
  O   O12       1.0  0.3346988533333333  0.16666666666666666  0.8333333333333331  1.0000
  Sr  Sr13      1.0  0.3335700266666667  0.3333333333333333  0.0  1.0000
  Mo  Mo13      1.0  0.5011908733333332  0.49999999999999994  0.16666666666666666  1.0000
  F   F13       1.0  0.5001584233333334  0.3333333333333333  0.16666666666666666  1.0000
  N   N13       1.0  0.50048732  0.49999999999999994  0.0  1.0000
  O   O13       1.0  0.3346988533333333  0.49999999999999994  0.16666666666666666  1.0000
  Sr  Sr14      1.0  0.3335700266666667  0.3333333333333333  0.3333333333333333  1.0000
  Mo  Mo14      1.0  0.5011908733333332  0.49999999999999994  0.49999999999999994  1.0000
  F   F14       1.0  0.5001584233333334  0.3333333333333333  0.49999999999999994  1.0000
  N   N14       1.0  0.50048732  0.49999999999999994  0.3333333333333333  1.0000
  O   O14       1.0  0.3346988533333333  0.49999999999999994  0.49999999999999994  1.0000
  Sr  Sr15      1.0  0.3335700266666667  0.3333333333333333  0.6666666666666666  1.0000
  Mo  Mo15      1.0  0.5011908733333332  0.49999999999999994  0.8333333333333331  1.0000
  F   F15       1.0  0.5001584233333334  0.3333333333333333  0.8333333333333331  1.0000
  N   N15       1.0  0.50048732  0.49999999999999994  0.6666666666666666  1.0000
  O   O15       1.0  0.3346988533333333  0.49999999999999994  0.8333333333333331  1.0000
  Sr  Sr16      1.0  0.3335700266666667  0.6666666666666666  0.0  1.0000
  Mo  Mo16      1.0  0.5011908733333332  0.8333333333333331  0.16666666666666666  1.0000
  F   F16       1.0  0.5001584233333334  0.6666666666666666  0.16666666666666666  1.0000
  N   N16       1.0  0.50048732  0.8333333333333331  0.0  1.0000
  O   O16       1.0  0.3346988533333333  0.8333333333333331  0.16666666666666666  1.0000
  Sr  Sr17      1.0  0.3335700266666667  0.6666666666666666  0.3333333333333333  1.0000
  Mo  Mo17      1.0  0.5011908733333332  0.8333333333333331  0.49999999999999994  1.0000
  F   F17       1.0  0.5001584233333334  0.6666666666666666  0.49999999999999994  1.0000
  N   N17       1.0  0.50048732  0.8333333333333331  0.3333333333333333  1.0000
  O   O17       1.0  0.3346988533333333  0.8333333333333331  0.49999999999999994  1.0000
  Sr  Sr18      1.0  0.3335700266666667  0.6666666666666666  0.6666666666666666  1.0000
  Mo  Mo18      1.0  0.5011908733333332  0.8333333333333331  0.8333333333333331  1.0000
  F   F18       1.0  0.5001584233333334  0.6666666666666666  0.8333333333333331  1.0000
  N   N18       1.0  0.50048732  0.8333333333333331  0.6666666666666666  1.0000
  O   O18       1.0  0.3346988533333333  0.8333333333333331  0.8333333333333331  1.0000
  Sr  Sr19      1.0  0.66690336  0.0  0.0  1.0000
  Mo  Mo19      1.0  0.8345242066666665  0.16666666666666666  0.16666666666666666  1.0000
  F   F19       1.0  0.8334917566666666  0.0  0.16666666666666666  1.0000
  N   N19       1.0  0.8338206533333332  0.16666666666666666  0.0  1.0000
  O   O19       1.0  0.6680321866666666  0.16666666666666666  0.16666666666666666  1.0000
  Sr  Sr20      1.0  0.66690336  0.0  0.3333333333333333  1.0000
  Mo  Mo20      1.0  0.8345242066666665  0.16666666666666666  0.49999999999999994  1.0000
  F   F20       1.0  0.8334917566666666  0.0  0.49999999999999994  1.0000
  N   N20       1.0  0.8338206533333332  0.16666666666666666  0.3333333333333333  1.0000
  O   O20       1.0  0.6680321866666666  0.16666666666666666  0.49999999999999994  1.0000
  Sr  Sr21      1.0  0.66690336  0.0  0.6666666666666666  1.0000
  Mo  Mo21      1.0  0.8345242066666665  0.16666666666666666  0.8333333333333331  1.0000
  F   F21       1.0  0.8334917566666666  0.0  0.8333333333333331  1.0000
  N   N21       1.0  0.8338206533333332  0.16666666666666666  0.6666666666666666  1.0000
  O   O21       1.0  0.6680321866666666  0.16666666666666666  0.8333333333333331  1.0000
  Sr  Sr22      1.0  0.66690336  0.3333333333333333  0.0  1.0000
  Mo  Mo22      1.0  0.8345242066666665  0.49999999999999994  0.16666666666666666  1.0000
  F   F22       1.0  0.8334917566666666  0.3333333333333333  0.16666666666666666  1.0000
  N   N22       1.0  0.8338206533333332  0.49999999999999994  0.0  1.0000
  O   O22       1.0  0.6680321866666666  0.49999999999999994  0.16666666666666666  1.0000
  Sr  Sr23      1.0  0.66690336  0.3333333333333333  0.3333333333333333  1.0000
  Mo  Mo23      1.0  0.8345242066666665  0.49999999999999994  0.49999999999999994  1.0000
  F   F23       1.0  0.8334917566666666  0.3333333333333333  0.49999999999999994  1.0000
  N   N23       1.0  0.8338206533333332  0.49999999999999994  0.3333333333333333  1.0000
  O   O23       1.0  0.6680321866666666  0.49999999999999994  0.49999999999999994  1.0000
  Sr  Sr24      1.0  0.66690336  0.3333333333333333  0.6666666666666666  1.0000
  Mo  Mo24      1.0  0.8345242066666665  0.49999999999999994  0.8333333333333331  1.0000
  F   F24       1.0  0.8334917566666666  0.3333333333333333  0.8333333333333331  1.0000
  N   N24       1.0  0.8338206533333332  0.49999999999999994  0.6666666666666666  1.0000
  O   O24       1.0  0.6680321866666666  0.49999999999999994  0.8333333333333331  1.0000
  Sr  Sr25      1.0  0.66690336  0.6666666666666666  0.0  1.0000
  Mo  Mo25      1.0  0.8345242066666665  0.8333333333333331  0.16666666666666666  1.0000
  F   F25       1.0  0.8334917566666666  0.6666666666666666  0.16666666666666666  1.0000
  N   N25       1.0  0.8338206533333332  0.8333333333333331  0.0  1.0000
  O   O25       1.0  0.6680321866666666  0.8333333333333331  0.16666666666666666  1.0000
  Sr  Sr26      1.0  0.66690336  0.6666666666666666  0.3333333333333333  1.0000
  Mo  Mo26      1.0  0.8345242066666665  0.8333333333333331  0.49999999999999994  1.0000
  F   F26       1.0  0.8334917566666666  0.6666666666666666  0.49999999999999994  1.0000
  N   N26       1.0  0.8338206533333332  0.8333333333333331  0.3333333333333333  1.0000
  O   O26       1.0  0.6680321866666666  0.8333333333333331  0.49999999999999994  1.0000
  Sr  Sr27      1.0  0.66690336  0.6666666666666666  0.6666666666666666  1.0000
  Mo  Mo27      1.0  0.8345242066666665  0.8333333333333331  0.8333333333333331  1.0000
  F   F27       1.0  0.8334917566666666  0.6666666666666666  0.8333333333333331  1.0000
  N   N27       1.0  0.8338206533333332  0.8333333333333331  0.6666666666666666  1.0000
  O   O27       1.0  0.6680321866666666  0.8333333333333331  0.8333333333333331  1.0000
