# generated using pymatgen
data_LaRuNOF
_symmetry_space_group_name_H-M   'P 1'
_cell_length_a   12.39706421
_cell_length_b   12.39795113
_cell_length_c   12.41146851
_cell_angle_alpha   89.99901581
_cell_angle_beta   89.98854828
_cell_angle_gamma   90.00370789
_symmetry_Int_Tables_number   1
_chemical_formula_structural   LaRuNOF
_chemical_formula_sum   'La27 Ru27 N27 O27 F27'
_cell_volume   1907.62028019
_cell_formula_units_Z   27
loop_
 _symmetry_equiv_pos_site_id
 _symmetry_equiv_pos_as_xyz
  1  'x, y, z'
loop_
 _atom_site_type_symbol
 _atom_site_label
 _atom_site_symmetry_multiplicity
 _atom_site_fract_x
 _atom_site_fract_y
 _atom_site_fract_z
 _atom_site_occupancy
  La  La0  1  0.88937968  0.73592234  0.16158636  1
  La  La1  1  0.55630147  0.06937263  0.82816237  1
  La  La2  1  0.22282372  0.73621804  0.82817096  1
  La  La3  1  0.55567867  0.40242833  0.16163488  1
  La  La4  1  0.22288424  0.40243998  0.49504051  1
  La  La5  1  0.22279172  0.40267357  0.82808417  1
  La  La6  1  0.88927537  0.40273944  0.82813603  1
  La  La7  1  0.88951695  0.06919283  0.49498054  1
  La  La8  1  0.22302295  0.73579115  0.16165006  1
  La  La9  1  0.55635226  0.73577106  0.82810581  1
  La  La10  1  0.55623555  0.40241012  0.49502057  1
  La  La11  1  0.88942164  0.40245286  0.49509254  1
  La  La12  1  0.88929909  0.40269089  0.16162159  1
  La  La13  1  0.88952106  0.73596984  0.82809806  1
  La  La14  1  0.88948673  0.06925393  0.82835037  1
  La  La15  1  0.55656272  0.73610550  0.16160591  1
  La  La16  1  0.22278486  0.40273851  0.16166520  1
  La  La17  1  0.22281243  0.06926228  0.82825428  1
  La  La18  1  0.22275774  0.06938920  0.49493706  1
  La  La19  1  0.22261526  0.06932211  0.16156694  1
  La  La20  1  0.55577165  0.40282068  0.82829869  1
  La  La21  1  0.55667681  0.06923791  0.16162580  1
  La  La22  1  0.88930476  0.73583513  0.49490237  1
  La  La23  1  0.55641621  0.73610258  0.49484584  1
  La  La24  1  0.55647171  0.06929930  0.49496645  1
  La  La25  1  0.88925123  0.06911255  0.16158840  1
  La  La26  1  0.22303453  0.73595482  0.49490049  1
  Ru  Ru27  1  0.72425461  0.56964457  0.66147149  1
  Ru  Ru28  1  0.39012608  0.56924587  0.32831821  1
  Ru  Ru29  1  0.72364295  0.23594163  0.66141194  1
  Ru  Ru30  1  0.05703651  0.23589839  0.66145670  1
  Ru  Ru31  1  0.72394174  0.56950366  0.32830137  1
  Ru  Ru32  1  0.72344834  0.56924278  0.99481905  1
  Ru  Ru33  1  0.05687441  0.56916326  0.32819086  1
  Ru  Ru34  1  0.39032614  0.23592183  0.99492115  1
  Ru  Ru35  1  0.72409666  0.23595220  0.99484807  1
  Ru  Ru36  1  0.72425270  0.90284514  0.32830179  1
  Ru  Ru37  1  0.05746077  0.23594613  0.99509269  1
  Ru  Ru38  1  0.05721684  0.23593244  0.32843927  1
  Ru  Ru39  1  0.05704957  0.56927413  0.99494642  1
  Ru  Ru40  1  0.39077640  0.90272635  0.99479640  1
  Ru  Ru41  1  0.05705201  0.90266472  0.32817143  1
  Ru  Ru42  1  0.39070383  0.56931472  0.66152948  1
  Ru  Ru43  1  0.72397751  0.23574507  0.32812446  1
  Ru  Ru44  1  0.05708436  0.56941408  0.66151100  1
  Ru  Ru45  1  0.39021870  0.23590203  0.66156882  1
  Ru  Ru46  1  0.05699443  0.90265697  0.99480855  1
  Ru  Ru47  1  0.39086103  0.56926453  0.99483341  1
  Ru  Ru48  1  0.05698943  0.90262318  0.66152000  1
  Ru  Ru49  1  0.72398472  0.90254074  0.99484563  1
  Ru  Ru50  1  0.39061746  0.23583625  0.32844108  1
  Ru  Ru51  1  0.72429782  0.90277243  0.66161090  1
  Ru  Ru52  1  0.39008775  0.90265310  0.32823786  1
  Ru  Ru53  1  0.39079726  0.90256524  0.66159725  1
  N  N54  1  0.05678232  0.90254933  0.82832271  1
  N  N55  1  0.05703380  0.23601274  0.82819045  1
  N  N56  1  0.05674361  0.23590827  0.49504414  1
  N  N57  1  0.38998583  0.56925863  0.16163981  1
  N  N58  1  0.72394443  0.23605904  0.49496636  1
  N  N59  1  0.39002740  0.90245801  0.49485770  1
  N  N60  1  0.72322619  0.90247995  0.16164064  1
  N  N61  1  0.39010137  0.90253532  0.16162986  1
  N  N62  1  0.39019403  0.56898624  0.49505219  1
  N  N63  1  0.38983834  0.23594241  0.16163523  1
  N  N64  1  0.05657460  0.56925941  0.49495482  1
  N  N65  1  0.72385222  0.56890935  0.49502108  1
  N  N66  1  0.72385806  0.56935304  0.82835001  1
  N  N67  1  0.72378111  0.56910270  0.16170737  1
  N  N68  1  0.39002532  0.23597717  0.49500808  1
  N  N69  1  0.05672291  0.90250927  0.49494234  1
  N  N70  1  0.05655074  0.56928086  0.16166532  1
  N  N71  1  0.05676529  0.23585933  0.16149616  1
  N  N72  1  0.38999009  0.90249610  0.82846487  1
  N  N73  1  0.38985303  0.56924510  0.82840049  1
  N  N74  1  0.39001206  0.23593846  0.82839054  1
  N  N75  1  0.05719296  0.56925452  0.82831961  1
  N  N76  1  0.72331631  0.23594996  0.16162172  1
  N  N77  1  0.72327954  0.90255654  0.49496302  1
  N  N78  1  0.05676128  0.90256882  0.16162384  1
  N  N79  1  0.72342193  0.23597614  0.82836509  1
  N  N80  1  0.72354525  0.90240490  0.82823926  1
  O  O81  1  0.55832881  0.90253890  0.32837221  1
  O  O82  1  0.89122629  0.56936282  0.99488038  1
  O  O83  1  0.89098650  0.56916440  0.32821706  1
  O  O84  1  0.55818623  0.56927103  0.99506956  1
  O  O85  1  0.55757338  0.90251696  0.99487144  1
  O  O86  1  0.55766153  0.23593479  0.99502611  1
  O  O87  1  0.89104843  0.56927741  0.66165233  1
  O  O88  1  0.22438727  0.23594031  0.32847899  1
  O  O89  1  0.89107168  0.90267646  0.66157871  1
  O  O90  1  0.22459508  0.90268010  0.99493468  1
  O  O91  1  0.55759245  0.23598655  0.66157895  1
  O  O92  1  0.22445256  0.23600166  0.99487692  1
  O  O93  1  0.89110029  0.23597914  0.99492812  1
  O  O94  1  0.55820870  0.56921506  0.66161257  1
  O  O95  1  0.55762672  0.90262276  0.66151279  1
  O  O96  1  0.22491534  0.90262556  0.66161138  1
  O  O97  1  0.55766112  0.23594543  0.32819268  1
  O  O98  1  0.89098221  0.90258080  0.99486083  1
  O  O99  1  0.55763102  0.56933898  0.32839340  1
  O  O100  1  0.22462562  0.56931382  0.66161931  1
  O  O101  1  0.22432147  0.56929141  0.32841647  1
  O  O102  1  0.89103764  0.23592839  0.66147274  1
  O  O103  1  0.89149797  0.90268469  0.32831976  1
  O  O104  1  0.22462393  0.56938535  0.99503905  1
  O  O105  1  0.89179051  0.23599043  0.32807285  1
  O  O106  1  0.22448944  0.23593898  0.66160166  1
  O  O107  1  0.22442290  0.90266043  0.32835472  1
  F  F108  1  0.72372460  0.06919749  0.99496365  1
  F  F109  1  0.05684248  0.40257278  0.66161191  1
  F  F110  1  0.05706017  0.06927104  0.32821217  1
  F  F111  1  0.05681486  0.73588187  0.66153115  1
  F  F112  1  0.72377187  0.06918133  0.32831606  1
  F  F113  1  0.05714563  0.40270692  0.32822677  1
  F  F114  1  0.05683118  0.06929641  0.99489880  1
  F  F115  1  0.05701624  0.40254796  0.99496889  1
  F  F116  1  0.72364551  0.06925632  0.66146111  1
  F  F117  1  0.39052871  0.40245998  0.32838237  1
  F  F118  1  0.39026949  0.06926887  0.32805198  1
  F  F119  1  0.39041227  0.40240178  0.66145515  1
  F  F120  1  0.39055750  0.40241799  0.99507660  1
  F  F121  1  0.72387129  0.40252253  0.99500471  1
  F  F122  1  0.05691929  0.73589998  0.32847461  1
  F  F123  1  0.72369164  0.73586297  0.66170889  1
  F  F124  1  0.05704647  0.06931178  0.66164303  1
  F  F125  1  0.05699912  0.73615211  0.99481177  1
  F  F126  1  0.39029032  0.73575205  0.32851034  1
  F  F127  1  0.39044225  0.06927500  0.99484438  1
  F  F128  1  0.39059669  0.73600292  0.66162765  1
  F  F129  1  0.72372365  0.40250656  0.32838792  1
  F  F130  1  0.72370011  0.40245375  0.66159481  1
  F  F131  1  0.72368622  0.73581761  0.99479097  1
  F  F132  1  0.39047360  0.73594731  0.99506330  1
  F  F133  1  0.72373050  0.73606676  0.32820696  1
  F  F134  1  0.39027071  0.06900841  0.66141230  1
